REMARK  5 active torsions:
REMARK  status: ('A' for Active; 'I' for Inactive)
REMARK    1  A    between atoms: C4_6  and  C5_7 
REMARK    2  A    between atoms: N3_17  and  C14_18 
REMARK    3  A    between atoms: C14_18  and  C15_19 
REMARK    4  A    between atoms: N4_22  and  C18_23 
REMARK    5  A    between atoms: C18_23  and  C19_24 
ROOT
HETATM    1  O1  UNL     1       3.358   1.577   1.542  1.00  0.00    -0.265 OA
HETATM    2  C1  UNL     1       2.406   1.863   0.765  1.00  0.00     0.284 A 
HETATM    3  C2  UNL     1       1.246   1.112   0.785  1.00  0.00     0.171 A 
HETATM    4  C3  UNL     1       0.224   1.407  -0.044  1.00  0.00     0.148 A 
HETATM    5  N1  UNL     1      -0.773   0.531   0.147  1.00  0.00    -0.328 N 
HETATM    6  C4  UNL     1      -0.303  -0.281   1.128  1.00  0.00     0.115 A 
HETATM    7  N2  UNL     1       0.955   0.037   1.538  1.00  0.00    -0.225 NA
HETATM    8  N3  UNL     1       0.274   2.439  -0.934  1.00  0.00    -0.283 N 
HETATM    9  C17 UNL     1       1.427   3.199  -0.966  1.00  0.00     0.333 A 
HETATM   10  N4  UNL     1       2.489   2.918  -0.117  1.00  0.00    -0.264 N 
HETATM   11  O2  UNL     1       1.518   4.158  -1.784  1.00  0.00    -0.246 OA
HETATM   12  H1  UNL     1      -1.688   0.464  -0.350  1.00  0.00     0.169 HD
ENDROOT
BRANCH   6  13
HETATM   13  C5  UNL     1      -1.049  -1.496   1.621  1.00  0.00     0.025 C 
HETATM   14  C6  UNL     1      -2.569  -1.273   1.749  1.00  0.00     0.022 C 
HETATM   15  C7  UNL     1      -2.938  -2.349   2.763  1.00  0.00    -0.013 C 
HETATM   16  C8  UNL     1      -1.915  -2.054   3.853  1.00  0.00     0.010 C 
HETATM   17  C11 UNL     1      -2.642  -3.769   2.145  1.00  0.00     0.009 C 
HETATM   18  C9  UNL     1      -0.612  -2.018   3.040  1.00  0.00     0.002 C 
HETATM   19  C10 UNL     1      -0.217  -3.483   2.801  1.00  0.00     0.010 C 
HETATM   20  C12 UNL     1      -1.148  -3.858   1.652  1.00  0.00    -0.013 C 
HETATM   21  C13 UNL     1      -0.867  -2.709   0.690  1.00  0.00     0.022 C 
ENDBRANCH   6  13
BRANCH   8  22
HETATM   22  C14 UNL     1      -0.858   2.709  -1.840  1.00  0.00     0.135 C 
BRANCH  22  23
HETATM   23  C15 UNL     1      -0.862   1.748  -3.039  1.00  0.00     0.016 C 
HETATM   24  C16 UNL     1       0.347   1.948  -3.950  1.00  0.00     0.006 C 
ENDBRANCH  22  23
ENDBRANCH   8  22
BRANCH  10  25
HETATM   25  C18 UNL     1       3.724   3.728  -0.167  1.00  0.00     0.137 C 
BRANCH  25  26
HETATM   26  C19 UNL     1       4.827   3.028  -0.975  1.00  0.00     0.016 C 
HETATM   27  C20 UNL     1       4.464   2.877  -2.450  1.00  0.00     0.006 C 
ENDBRANCH  25  26
ENDBRANCH  10  25
TORSDOF 5
