REMARK  3 active torsions:
REMARK  status: ('A' for Active; 'I' for Inactive)
REMARK    1  A    between atoms: C2_2  and  C7_11 
REMARK    2  A    between atoms: C3_4  and  C6_8 
REMARK    3  A    between atoms: C6_8  and  O3_9 
ROOT
HETATM    1  C1  UNL     1      -2.120  -1.151   0.588  1.00  0.00     0.061 C 
HETATM    2  C2  UNL     1      -0.705  -0.596   0.387  1.00  0.00     0.155 A 
HETATM    3  O1  UNL     1      -0.634   0.722   0.933  1.00  0.00    -0.321 OA
HETATM    4  C3  UNL     1       0.303   0.793   1.962  1.00  0.00     0.147 A 
HETATM    5  C4  UNL     1       0.879  -0.376   2.187  1.00  0.00     0.097 A 
HETATM    6  C5  UNL     1       0.293  -1.312   1.247  1.00  0.00     0.191 A 
HETATM    7  O2  UNL     1       0.572  -2.539   1.191  1.00  0.00    -0.289 OA
ENDROOT
BRANCH   2   8
HETATM    8  C7  UNL     1      -0.294  -0.615  -1.081  1.00  0.00    -0.016 A 
HETATM    9  C8  UNL     1      -0.016   0.579  -1.779  1.00  0.00     0.011 A 
HETATM   10  C9  UNL     1       0.354   0.544  -3.127  1.00  0.00     0.001 A 
HETATM   11  C10 UNL     1       0.451  -0.677  -3.797  1.00  0.00     0.000 A 
HETATM   12  C11 UNL     1       0.174  -1.866  -3.122  1.00  0.00     0.001 A 
HETATM   13  C12 UNL     1      -0.197  -1.839  -1.775  1.00  0.00     0.011 A 
ENDBRANCH   2   8
BRANCH   4  14
HETATM   14  C6  UNL     1       0.598   2.029   2.696  1.00  0.00     0.200 C 
HETATM   15  O4  UNL     1      -0.010   3.091   2.399  1.00  0.00    -0.645 OA
BRANCH  14  16
HETATM   16  O3  UNL     1       1.545   2.033   3.716  1.00  0.00    -0.771 OA
HETATM   17  H5  UNL     1       1.754   2.883   4.227  1.00  0.00     0.167 HD
ENDBRANCH  14  16
ENDBRANCH   4  14
TORSDOF 3
