REMARK  0 active torsions:
REMARK  status: ('A' for Active; 'I' for Inactive)
ROOT
HETATM    1  C1  UNL     1      -2.968  -0.052  -1.694  1.00  0.00     0.157 C 
HETATM    2  N1  UNL     1      -2.149  -0.152  -0.491  1.00  0.00    -0.338 N 
HETATM    3  C2  UNL     1      -2.576  -0.425   0.767  1.00  0.00     0.212 A 
HETATM    4  N2  UNL     1      -1.568  -0.458   1.678  1.00  0.00    -0.223 NA
HETATM    5  C3  UNL     1      -0.479  -0.187   0.930  1.00  0.00     0.167 A 
HETATM    6  N3  UNL     1       0.810  -0.114   1.361  1.00  0.00    -0.286 N 
HETATM    7  C4  UNL     1       1.147  -0.372   2.768  1.00  0.00     0.163 C 
HETATM    8  C5  UNL     1       1.791   0.130   0.425  1.00  0.00     0.332 A 
HETATM    9  O1  UNL     1       3.003   0.145   0.783  1.00  0.00    -0.246 OA
HETATM   10  N4  UNL     1       1.464   0.351  -0.904  1.00  0.00    -0.269 N 
HETATM   11  C6  UNL     1       2.530   0.598  -1.889  1.00  0.00     0.164 C 
HETATM   12  C7  UNL     1       0.155   0.264  -1.318  1.00  0.00     0.282 A 
HETATM   13  O2  UNL     1      -0.160   0.416  -2.531  1.00  0.00    -0.265 OA
HETATM   14  C8  UNL     1      -0.819  -0.005  -0.366  1.00  0.00     0.151 A 
ENDROOT
TORSDOF 0
