REMARK  5 active torsions:
REMARK  status: ('A' for Active; 'I' for Inactive)
REMARK    1  A    between atoms: O1_2  and  C2_3 
REMARK    2  A    between atoms: C5_6  and  S1_9 
REMARK    3  A    between atoms: S1_9  and  N1_12 
REMARK    4  A    between atoms: C11_16  and  C12_17 
REMARK       I    between atoms: C12_17  and  N2_19 
REMARK    5  A    between atoms: N2_19  and  C13_20 
ROOT
HETATM    1  N1  UNL     1       1.417   0.085  -0.297  1.00  0.00    -0.193 NA
HETATM    2  C8  UNL     1       2.445  -0.411   0.629  1.00  0.00     0.109 C 
HETATM    3  C9  UNL     1       3.711   0.426   0.424  1.00  0.00     0.018 C 
HETATM    4  C10 UNL     1       3.464   1.237  -0.838  1.00  0.00     0.032 C 
HETATM    5  C11 UNL     1       2.200   0.619  -1.427  1.00  0.00     0.166 C 
ENDROOT
BRANCH   5   6
HETATM    6  C12 UNL     1       1.419   1.510  -2.376  1.00  0.00     0.241 C 
HETATM    7  O4  UNL     1       1.794   2.698  -2.572  1.00  0.00    -0.271 OA
HETATM    8  N2  UNL     1       0.234   1.043  -3.043  1.00  0.00    -0.326 N 
HETATM    9  H15 UNL     1      -0.411   1.760  -3.447  1.00  0.00     0.169 HD
BRANCH   8  10
HETATM   10  C13 UNL     1      -0.231  -0.313  -2.982  1.00  0.00     0.035 A 
HETATM   11  C14 UNL     1      -1.504  -0.587  -2.464  1.00  0.00     0.036 A 
HETATM   12  C15 UNL     1      -1.972  -1.908  -2.393  1.00  0.00    -0.059 A 
HETATM   13  C16 UNL     1      -3.302  -2.208  -1.766  1.00  0.00     0.048 C 
HETATM   14  C17 UNL     1      -1.157  -2.956  -2.845  1.00  0.00     0.013 A 
HETATM   15  C18 UNL     1       0.097  -2.686  -3.412  1.00  0.00    -0.059 A 
HETATM   16  C19 UNL     1       0.972  -3.811  -3.881  1.00  0.00     0.048 C 
HETATM   17  C20 UNL     1       0.557  -1.362  -3.475  1.00  0.00     0.036 A 
ENDBRANCH   8  10
ENDBRANCH   5   6
BRANCH   1  18
HETATM   18  S1  UNL     1       0.433   1.290   0.529  1.00  0.00     0.244 S 
HETATM   19  O2  UNL     1       1.297   2.382   1.098  1.00  0.00    -0.206 OA
HETATM   20  O3  UNL     1      -0.572   1.906  -0.402  1.00  0.00    -0.206 OA
BRANCH  18  21
HETATM   21  C5  UNL     1      -0.463   0.496   1.821  1.00  0.00     0.074 A 
HETATM   22  C4  UNL     1      -0.252   0.838   3.163  1.00  0.00     0.027 A 
HETATM   23  C3  UNL     1      -0.967   0.188   4.173  1.00  0.00     0.038 A 
HETATM   24  C2  UNL     1      -1.899  -0.809   3.858  1.00  0.00     0.068 A 
HETATM   25  C7  UNL     1      -2.110  -1.149   2.507  1.00  0.00     0.038 A 
HETATM   26  C6  UNL     1      -1.392  -0.501   1.499  1.00  0.00     0.027 A 
BRANCH  24  27
HETATM   27  O1  UNL     1      -2.590  -1.434   4.906  1.00  0.00    -0.356 OA
HETATM   28  C1  UNL     1      -3.571  -2.449   4.728  1.00  0.00     0.210 C 
ENDBRANCH  24  27
ENDBRANCH  18  21
ENDBRANCH   1  18
TORSDOF 5
