REMARK  3 active torsions:
REMARK  status: ('A' for Active; 'I' for Inactive)
REMARK    1  A    between atoms: C4_5  and  C6_9 
REMARK    2  A    between atoms: N2_7  and  O1_8 
REMARK    3  A    between atoms: C6_9  and  O2_10 
ROOT
HETATM    1  C1  UNL     1      -1.637  -1.107  -2.120  1.00  0.00     0.072 C 
HETATM    2  C2  UNL     1      -0.581  -0.567  -1.194  1.00  0.00     0.053 A 
HETATM    3  C3  UNL     1       0.621  -1.271  -1.056  1.00  0.00     0.144 A 
HETATM    4  N1  UNL     1       1.585  -0.798  -0.228  1.00  0.00    -0.251 NA
HETATM    5  C4  UNL     1       1.422   0.352   0.477  1.00  0.00     0.147 A 
HETATM    6  C5  UNL     1       0.212   1.054   0.350  1.00  0.00     0.161 A 
HETATM    7  N2  UNL     1      -0.765   0.587  -0.482  1.00  0.00    -0.237 N 
ENDROOT
BRANCH   5   8
HETATM    8  C6  UNL     1       2.512   0.807   1.368  1.00  0.00     0.197 C 
HETATM    9  O3  UNL     1       3.430   0.001   1.674  1.00  0.00    -0.645 OA
BRANCH   8  10
HETATM   10  O2  UNL     1       2.574   2.108   1.867  1.00  0.00    -0.772 OA
HETATM   11  H7  UNL     1       1.931   2.836   1.585  1.00  0.00     0.167 HD
ENDBRANCH   8  10
ENDBRANCH   5   8
BRANCH   7  12
HETATM   12  O1  UNL     1      -1.949   1.288  -0.595  1.00  0.00    -0.283 OA
HETATM   13  H6  UNL     1      -2.111   2.145  -0.078  1.00  0.00     0.245 HD
ENDBRANCH   7  12
TORSDOF 3
