REMARK  7 active torsions:
REMARK  status: ('A' for Active; 'I' for Inactive)
REMARK    1  A    between atoms: N1_1  and  C1_2 
REMARK    2  A    between atoms: C2_4  and  N3_5 
REMARK    3  A    between atoms: N3_5  and  C3_6 
REMARK    4  A    between atoms: C3_6  and  C4_7 
REMARK    5  A    between atoms: C4_7  and  C5_8 
REMARK    6  A    between atoms: C8_11  and  O1_12 
REMARK    7  A    between atoms: C12_18  and  C13_21 
ROOT
HETATM    1  C1  UNL     1      -1.417   2.010   0.354  1.00  0.00     0.752 A 
HETATM    2  N2  UNL     1      -0.130   2.457   0.348  1.00  0.00     0.131 NA
HETATM    3  C2  UNL     1       0.899   1.618   0.685  1.00  0.00     0.754 A 
HETATM    4  N4  UNL     1       0.639   0.324   1.044  1.00  0.00     0.133 NA
HETATM    5  C11 UNL     1      -0.647  -0.094   1.039  1.00  0.00     0.782 A 
HETATM    6  N5  UNL     1      -1.073  -1.335   1.328  1.00  0.00    -0.035 NA
HETATM    7  C12 UNL     1      -2.413  -1.192   1.135  1.00  0.00     0.223 A 
HETATM    8  N6  UNL     1      -2.776   0.058   0.751  1.00  0.00    -0.113 NA
HETATM    9  N7  UNL     1      -1.639   0.721   0.700  1.00  0.00     0.121 N 
ENDROOT
BRANCH   3  10
HETATM   10  N3  UNL     1       2.249   2.095   0.620  1.00  0.00    -0.221 N 
HETATM   11  H3  UNL     1       2.412   3.106   0.413  1.00  0.00     0.177 HD
BRANCH  10  12
HETATM   12  C3  UNL     1       3.413   1.209   0.688  1.00  0.00     0.142 C 
BRANCH  12  13
HETATM   13  C4  UNL     1       3.743   0.629  -0.695  1.00  0.00     0.058 C 
BRANCH  13  14
HETATM   14  C5  UNL     1       2.698  -0.353  -1.158  1.00  0.00    -0.057 A 
HETATM   15  C6  UNL     1       2.603  -1.620  -0.558  1.00  0.00     0.010 A 
HETATM   16  C7  UNL     1       1.595  -2.509  -0.942  1.00  0.00     0.037 A 
HETATM   17  C8  UNL     1       0.675  -2.146  -1.931  1.00  0.00     0.065 A 
HETATM   18  C9  UNL     1       0.775  -0.891  -2.546  1.00  0.00     0.037 A 
HETATM   19  C10 UNL     1       1.785  -0.000  -2.166  1.00  0.00     0.010 A 
BRANCH  17  20
HETATM   20  O1  UNL     1      -0.334  -3.035  -2.292  1.00  0.00    -0.361 OA
HETATM   21  H10 UNL     1      -1.019  -2.800  -3.001  1.00  0.00     0.217 HD
ENDBRANCH  17  20
ENDBRANCH  13  14
ENDBRANCH  12  13
ENDBRANCH  10  12
ENDBRANCH   3  10
BRANCH   1  22
HETATM   22  N1  UNL     1      -2.490   2.880  -0.007  1.00  0.00    -0.230 N 
HETATM   23  H1  UNL     1      -2.295   3.870  -0.277  1.00  0.00     0.174 HD
HETATM   24  H2  UNL     1      -3.477   2.541  -0.008  1.00  0.00     0.174 HD
ENDBRANCH   1  22
BRANCH   7  25
HETATM   25  C13 UNL     1      -3.366  -2.291   1.315  1.00  0.00     0.125 A 
HETATM   26  O2  UNL     1      -3.025  -3.505   1.679  1.00  0.00    -0.319 OA
HETATM   27  C14 UNL     1      -4.111  -4.241   1.745  1.00  0.00     0.142 A 
HETATM   28  C15 UNL     1      -5.211  -3.479   1.409  1.00  0.00     0.027 A 
HETATM   29  C16 UNL     1      -4.733  -2.217   1.130  1.00  0.00     0.043 A 
ENDBRANCH   7  25
TORSDOF 7
