REMARK  5 active torsions:
REMARK  status: ('A' for Active; 'I' for Inactive)
REMARK    1  A    between atoms: C4_4  and  C7_7 
REMARK    2  A    between atoms: C7_7  and  C8_8 
REMARK    3  A    between atoms: C8_8  and  N1_9 
REMARK    4  A    between atoms: C13_16  and  C15_22 
REMARK    5  A    between atoms: C14_19  and  N7_21 
ROOT
HETATM    1  N1  UNL     1       1.567   0.551  -1.054  1.00  0.00    -0.251 N 
HETATM    2  C9  UNL     1       0.980  -0.615  -0.743  1.00  0.00     0.180 A 
HETATM    3  C10 UNL     1      -0.318  -0.591  -1.155  1.00  0.00     0.080 A 
HETATM    4  C11 UNL     1      -0.505   0.641  -1.740  1.00  0.00     0.158 A 
HETATM    5  N2  UNL     1       0.669   1.321  -1.666  1.00  0.00    -0.182 NA
HETATM    6  C12 UNL     1      -1.104  -1.701  -0.916  1.00  0.00     0.187 A 
HETATM    7  N3  UNL     1      -2.397  -1.893  -1.228  1.00  0.00    -0.204 NA
HETATM    8  C13 UNL     1      -2.591  -3.150  -0.742  1.00  0.00     0.206 A 
HETATM    9  N4  UNL     1      -1.484  -3.689  -0.170  1.00  0.00    -0.128 NA
HETATM   10  N5  UNL     1      -0.563  -2.755  -0.293  1.00  0.00    -0.040 N 
HETATM   11  C14 UNL     1       0.743  -2.787   0.122  1.00  0.00     0.725 A 
HETATM   12  N6  UNL     1       1.535  -1.689  -0.108  1.00  0.00    -0.043 NA
ENDROOT
BRANCH   1  13
HETATM   13  C8  UNL     1       2.944   0.956  -0.777  1.00  0.00     0.158 C 
BRANCH  13  14
HETATM   14  C7  UNL     1       3.182   1.129   0.728  1.00  0.00     0.060 C 
BRANCH  14  15
HETATM   15  C4  UNL     1       2.255   2.161   1.317  1.00  0.00    -0.057 A 
HETATM   16  C3  UNL     1       1.054   1.769   1.932  1.00  0.00     0.007 A 
HETATM   17  C2  UNL     1       0.175   2.731   2.439  1.00  0.00     0.001 A 
HETATM   18  C1  UNL     1       0.486   4.089   2.331  1.00  0.00     0.000 A 
HETATM   19  C6  UNL     1       1.674   4.488   1.713  1.00  0.00     0.001 A 
HETATM   20  C5  UNL     1       2.555   3.529   1.203  1.00  0.00     0.007 A 
ENDBRANCH  14  15
ENDBRANCH  13  14
ENDBRANCH   1  13
BRANCH  11  21
HETATM   21  N7  UNL     1       1.279  -3.933   0.785  1.00  0.00    -0.231 N 
HETATM   22  H11 UNL     1       2.275  -3.940   1.097  1.00  0.00     0.174 HD
HETATM   23  H12 UNL     1       0.687  -4.773   0.966  1.00  0.00     0.174 HD
ENDBRANCH  11  21
BRANCH   8  24
HETATM   24  C15 UNL     1      -3.871  -3.859  -0.826  1.00  0.00     0.124 A 
HETATM   25  C16 UNL     1      -5.032  -3.371  -1.392  1.00  0.00     0.043 A 
HETATM   26  C17 UNL     1      -5.966  -4.374  -1.241  1.00  0.00     0.027 A 
HETATM   27  C18 UNL     1      -5.318  -5.408  -0.595  1.00  0.00     0.142 A 
HETATM   28  O1  UNL     1      -4.070  -5.070  -0.361  1.00  0.00    -0.319 OA
ENDBRANCH   8  24
TORSDOF 5
