REMARK  5 active torsions:
REMARK  status: ('A' for Active; 'I' for Inactive)
REMARK    1  A    between atoms: C2_2  and  C3_3 
REMARK    2  A    between atoms: C3_3  and  N1_4 
REMARK    3  A    between atoms: N2_9  and  C8_12 
REMARK    4  A    between atoms: C8_12  and  C9_13 
REMARK    5  A    between atoms: C11_16  and  C12_18 
ROOT
HETATM    1  N1  UNL     1       1.215   0.578   0.538  1.00  0.00    -0.281 N 
HETATM    2  C4  UNL     1      -0.044   0.115   0.304  1.00  0.00     0.168 A 
HETATM    3  C5  UNL     1      -0.276  -1.059  -0.318  1.00  0.00     0.149 A 
HETATM    4  C6  UNL     1       0.771  -1.853  -0.747  1.00  0.00     0.282 A 
HETATM    5  O1  UNL     1       0.539  -2.953  -1.319  1.00  0.00    -0.265 OA
HETATM    6  N2  UNL     1       2.057  -1.411  -0.525  1.00  0.00    -0.264 N 
HETATM    7  C7  UNL     1       2.275  -0.201   0.118  1.00  0.00     0.333 A 
HETATM    8  O2  UNL     1       3.458   0.197   0.315  1.00  0.00    -0.246 OA
HETATM    9  N3  UNL     1      -1.595  -1.273  -0.397  1.00  0.00    -0.336 N 
HETATM   10  C11 UNL     1      -2.133  -0.177   0.198  1.00  0.00     0.111 A 
HETATM   11  N4  UNL     1      -1.203   0.703   0.656  1.00  0.00    -0.214 NA
HETATM   12  H15 UNL     1      -2.086  -2.095  -0.813  1.00  0.00     0.167 HD
ENDROOT
BRANCH  10  13
HETATM   13  C12 UNL     1      -3.613   0.033   0.404  1.00  0.00     0.055 C 
HETATM   14  C13 UNL     1      -4.159  -0.901   1.480  1.00  0.00     0.012 C 
HETATM   15  C14 UNL     1      -4.684  -2.124   0.746  1.00  0.00     0.001 C 
HETATM   16  C15 UNL     1      -5.036  -1.664  -0.665  1.00  0.00     0.001 C 
HETATM   17  C16 UNL     1      -4.423  -0.277  -0.857  1.00  0.00     0.012 C 
ENDBRANCH  10  13
BRANCH   1  18
HETATM   18  C3  UNL     1       1.415   1.865   1.230  1.00  0.00     0.135 C 
BRANCH  18  19
HETATM   19  C2  UNL     1       1.114   3.054   0.306  1.00  0.00     0.016 C 
HETATM   20  C1  UNL     1       2.077   3.122  -0.877  1.00  0.00     0.006 C 
ENDBRANCH  18  19
ENDBRANCH   1  18
BRANCH   6  21
HETATM   21  C8  UNL     1       3.208  -2.235  -0.950  1.00  0.00     0.137 C 
BRANCH  21  22
HETATM   22  C9  UNL     1       3.802  -3.024   0.226  1.00  0.00     0.016 C 
HETATM   23  C10 UNL     1       2.834  -4.071   0.773  1.00  0.00     0.006 C 
ENDBRANCH  21  22
ENDBRANCH   6  21
TORSDOF 5
